2009UseCases/UseCases_40perc_wpf85/UseCases_40perc_wpf85_3.glm
// Support file for the D.O.E. Modern Grid Use Test Cases
//   As this is a support file, it will not run on its own but
//   will be "included" into a larger system
//   Please see file named UseCases_40perc_wpf85_1.glm to run the entire model

// Capacitors

object capacitor {
     name feeder_3_R3-12-47-1_cap_1; 
     phases ABCN; 
     pt_phase ABC;
     parent feeder_3_R3-12-47-1_node_238; 
     phases_connected ABC; 
     control VAR;
     VAr_set_high 200000;
     VAr_set_low 50000;
     remote_sense feeder_3_R3-12-47-1_ol_109;
     capacitor_A 0.4 MVAr;
     capacitor_B 0.4 MVAr;
     capacitor_C 0.4 MVAr;
     control_level INDIVIDUAL; 
     switchA OPEN; 
     switchB OPEN; 
     switchC OPEN; 
     time_delay 60;
     dwell_time 300;
     cap_nominal_voltage 7200; 
     nominal_voltage 7199.558; 
}

// Fuses

object fuse {
     name feeder_3_R3-12-47-1_fuse_1; 
     phases ABCN; 
     from feeder_3_R3-12-47-1_node_6; 
     to feeder_3_R3-12-47-1_node_14; 
     current_limit 150; 
     status CLOSED; 
     mean_replacement_time 10000;
}

object fuse {
     name feeder_3_R3-12-47-1_fuse_2; 
     phases ABCN; 
     from feeder_3_R3-12-47-1_node_16; 
     to feeder_3_R3-12-47-1_node_19; 
     current_limit 80; 
     status CLOSED; 
     mean_replacement_time 10000;
}

object fuse {
     name feeder_3_R3-12-47-1_fuse_3; 
     phases ABCN; 
     from feeder_3_R3-12-47-1_node_25; 
     to feeder_3_R3-12-47-1_node_26; 
     current_limit 30; 
     status CLOSED; 
     mean_replacement_time 10000;
}

object fuse {
     name feeder_3_R3-12-47-1_fuse_4; 
     phases ABCN; 
     from feeder_3_R3-12-47-1_node_38; 
     to feeder_3_R3-12-47-1_node_39; 
     current_limit 80; 
     status CLOSED; 
     mean_replacement_time 10000;
}

object fuse {
     name feeder_3_R3-12-47-1_fuse_5; 
     phases ABCN; 
     from feeder_3_R3-12-47-1_node_53; 
     to feeder_3_R3-12-47-1_node_54; 
     current_limit 80; 
     status CLOSED; 
     mean_replacement_time 10000;
}

object fuse {
     name feeder_3_R3-12-47-1_fuse_6; 
     phases ABCN; 
     from feeder_3_R3-12-47-1_node_69; 
     to feeder_3_R3-12-47-1_node_70; 
     current_limit 150; 
     status CLOSED; 
     mean_replacement_time 10000;
}

object fuse {
     name feeder_3_R3-12-47-1_fuse_7; 
     phases ABN; 
     from feeder_3_R3-12-47-1_node_92; 
     to feeder_3_R3-12-47-1_node_93; 
     current_limit 30; 
     status CLOSED; 
     mean_replacement_time 10000;
}

object fuse {
     name feeder_3_R3-12-47-1_fuse_8; 
     phases ABN; 
     from feeder_3_R3-12-47-1_node_98; 
     to feeder_3_R3-12-47-1_node_99; 
     current_limit 30; 
     status CLOSED; 
     mean_replacement_time 10000;
}

object fuse {
     name feeder_3_R3-12-47-1_fuse_9; 
     phases ABCN; 
     from feeder_3_R3-12-47-1_node_103; 
     to feeder_3_R3-12-47-1_node_104; 
     current_limit 30; 
     status CLOSED; 
     mean_replacement_time 10000;
}

object fuse {
     name feeder_3_R3-12-47-1_fuse_10; 
     phases ABCN; 
     from feeder_3_R3-12-47-1_node_112; 
     to feeder_3_R3-12-47-1_node_113; 
     current_limit 100; 
     status CLOSED; 
     mean_replacement_time 10000;
}

object fuse {
     name feeder_3_R3-12-47-1_fuse_11; 
     phases ABCN; 
     from feeder_3_R3-12-47-1_node_122; 
     to feeder_3_R3-12-47-1_node_123; 
     current_limit 100; 
     status CLOSED; 
     mean_replacement_time 10000;
}

object fuse {
     name feeder_3_R3-12-47-1_fuse_12; 
     phases ABCN; 
     from feeder_3_R3-12-47-1_node_126; 
     to feeder_3_R3-12-47-1_node_127; 
     current_limit 75; 
     status CLOSED; 
     mean_replacement_time 10000;
}

object fuse {
     name feeder_3_R3-12-47-1_fuse_13; 
     phases ABCN; 
     from feeder_3_R3-12-47-1_node_129; 
     to feeder_3_R3-12-47-1_node_130; 
     current_limit 20; 
     status CLOSED; 
     mean_replacement_time 10000;
}

object fuse {
     name feeder_3_R3-12-47-1_fuse_14; 
     phases ABCN; 
     from feeder_3_R3-12-47-1_node_153; 
     to feeder_3_R3-12-47-1_node_154; 
     current_limit 50; 
     status CLOSED; 
     mean_replacement_time 10000;
}

object fuse {
     name feeder_3_R3-12-47-1_fuse_15; 
     phases ABCN; 
     from feeder_3_R3-12-47-1_node_155; 
     to feeder_3_R3-12-47-1_node_156; 
     current_limit 150; 
     status CLOSED; 
     mean_replacement_time 10000;
}

object fuse {
     name feeder_3_R3-12-47-1_fuse_16; 
     phases ABCN; 
     from feeder_3_R3-12-47-1_node_166; 
     to feeder_3_R3-12-47-1_node_167; 
     current_limit 150; 
     status CLOSED; 
     mean_replacement_time 10000;
}

object fuse {
     name feeder_3_R3-12-47-1_fuse_17; 
     phases ABCN; 
     from feeder_3_R3-12-47-1_node_198; 
     to feeder_3_R3-12-47-1_node_199; 
     current_limit 150; 
     status CLOSED; 
     mean_replacement_time 10000;
}

object fuse {
     name feeder_3_R3-12-47-1_fuse_18; 
     phases ABCN; 
     from feeder_3_R3-12-47-1_node_212; 
     to feeder_3_R3-12-47-1_node_213; 
     current_limit 30; 
     status CLOSED; 
     mean_replacement_time 10000;
}

object fuse {
     name feeder_3_R3-12-47-1_fuse_19; 
     phases ABCN; 
     from feeder_3_R3-12-47-1_node_235; 
     to feeder_3_R3-12-47-1_node_237; 
     current_limit 15; 
     status CLOSED; 
     mean_replacement_time 10000;
}

object fuse {
     name feeder_3_R3-12-47-1_fuse_20; 
     phases ABCN; 
     from feeder_3_R3-12-47-1_node_239; 
     to feeder_3_R3-12-47-1_node_240; 
     current_limit 30; 
     status CLOSED; 
     mean_replacement_time 10000;
}

object fuse {
     name feeder_3_R3-12-47-1_fuse_21; 
     phases ABN; 
     from feeder_3_R3-12-47-1_node_248; 
     to feeder_3_R3-12-47-1_node_249; 
     current_limit 80; 
     status CLOSED; 
     mean_replacement_time 10000;
}

object fuse {
     name feeder_3_R3-12-47-1_fuse_22; 
     phases ABCN; 
     from feeder_3_R3-12-47-1_node_257; 
     to feeder_3_R3-12-47-1_node_258; 
     current_limit 100; 
     status CLOSED; 
     mean_replacement_time 10000;
}

object fuse {
     name feeder_3_R3-12-47-1_fuse_23; 
     phases ABCN; 
     from feeder_3_R3-12-47-1_node_265; 
     to feeder_3_R3-12-47-1_node_266; 
     current_limit 50; 
     status CLOSED; 
     mean_replacement_time 10000;
}

object fuse {
     name feeder_3_R3-12-47-1_fuse_24; 
     phases ACN; 
     from feeder_3_R3-12-47-1_node_281; 
     to feeder_3_R3-12-47-1_node_282; 
     current_limit 10; 
     status CLOSED; 
     mean_replacement_time 10000;
}

object fuse {
     name feeder_3_R3-12-47-1_fuse_25; 
     phases BCN; 
     from feeder_3_R3-12-47-1_node_287; 
     to feeder_3_R3-12-47-1_node_288; 
     current_limit 10; 
     status CLOSED; 
     mean_replacement_time 10000;
}

object fuse {
     name feeder_3_R3-12-47-1_fuse_26; 
     phases ABCN; 
     from feeder_3_R3-12-47-1_node_295; 
     to feeder_3_R3-12-47-1_node_296; 
     current_limit 10; 
     status CLOSED; 
     mean_replacement_time 10000;
}

object fuse {
     name feeder_3_R3-12-47-1_fuse_27; 
     phases ABCN; 
     from feeder_3_R3-12-47-1_node_303; 
     to feeder_3_R3-12-47-1_node_304; 
     current_limit 300; 
     status CLOSED; 
     mean_replacement_time 10000;
}

object fuse {
     name feeder_3_R3-12-47-1_fuse_28; 
     phases ABN; 
     from feeder_3_R3-12-47-1_node_318; 
     to feeder_3_R3-12-47-1_node_319; 
     current_limit 15; 
     status CLOSED; 
     mean_replacement_time 10000;
}

object fuse {
     name feeder_3_R3-12-47-1_fuse_29; 
     phases ABCN; 
     from feeder_3_R3-12-47-1_node_340; 
     to feeder_3_R3-12-47-1_node_341; 
     current_limit 18; 
     status CLOSED; 
     mean_replacement_time 10000;
}

object fuse {
     name feeder_3_R3-12-47-1_fuse_30; 
     phases ABCN; 
     from feeder_3_R3-12-47-1_node_342; 
     to feeder_3_R3-12-47-1_node_343; 
     current_limit 18; 
     status CLOSED; 
     mean_replacement_time 10000;
}

object fuse {
     name feeder_3_R3-12-47-1_fuse_31; 
     phases ABCN; 
     from feeder_3_R3-12-47-1_node_342; 
     to feeder_3_R3-12-47-1_node_344; 
     current_limit 18; 
     status CLOSED; 
     mean_replacement_time 10000;
}

object fuse {
     name feeder_3_R3-12-47-1_fuse_32; 
     phases ABCN; 
     from feeder_3_R3-12-47-1_node_347; 
     to feeder_3_R3-12-47-1_node_348; 
     current_limit 18; 
     status CLOSED; 
     mean_replacement_time 10000;
}

object fuse {
     name feeder_3_R3-12-47-1_fuse_33; 
     phases ABCN; 
     from feeder_3_R3-12-47-1_node_347; 
     to feeder_3_R3-12-47-1_node_349; 
     current_limit 18; 
     status CLOSED; 
     mean_replacement_time 10000;
}

object fuse {
     name feeder_3_R3-12-47-1_fuse_34; 
     phases ABCN; 
     from feeder_3_R3-12-47-1_node_353; 
     to feeder_3_R3-12-47-1_node_354; 
     current_limit 300; 
     status CLOSED; 
     mean_replacement_time 10000;
}

object fuse {
     name feeder_3_R3-12-47-1_fuse_35; 
     phases ABCN; 
     from feeder_3_R3-12-47-1_node_356; 
     to feeder_3_R3-12-47-1_node_357; 
     current_limit 300; 
     status CLOSED; 
     mean_replacement_time 10000;
}

object fuse {
     name feeder_3_R3-12-47-1_fuse_36; 
     phases ABCN; 
     from feeder_3_R3-12-47-1_node_362; 
     to feeder_3_R3-12-47-1_node_363; 
     current_limit 30; 
     status CLOSED; 
     mean_replacement_time 10000;
}

object fuse {
     name feeder_3_R3-12-47-1_fuse_37; 
     phases ABCN; 
     from feeder_3_R3-12-47-1_node_409; 
     to feeder_3_R3-12-47-1_node_410; 
     current_limit 125; 
     status CLOSED; 
     mean_replacement_time 10000;
}

object fuse {
     name feeder_3_R3-12-47-1_fuse_38; 
     phases ACN; 
     from feeder_3_R3-12-47-1_node_428; 
     to feeder_3_R3-12-47-1_node_429; 
     current_limit 20; 
     status CLOSED; 
     mean_replacement_time 10000;
}

object fuse {
     name feeder_3_R3-12-47-1_fuse_39; 
     phases ABCN; 
     from feeder_3_R3-12-47-1_node_432; 
     to feeder_3_R3-12-47-1_node_433; 
     current_limit 30; 
     status CLOSED; 
     mean_replacement_time 10000;
}

object fuse {
     name feeder_3_R3-12-47-1_fuse_40; 
     phases ABCN; 
     from feeder_3_R3-12-47-1_node_439; 
     to feeder_3_R3-12-47-1_node_440; 
     current_limit 80; 
     status CLOSED; 
     mean_replacement_time 10000;
}

object fuse {
     name feeder_3_R3-12-47-1_fuse_41; 
     phases ACN; 
     from feeder_3_R3-12-47-1_node_447; 
     to feeder_3_R3-12-47-1_node_448; 
     current_limit 30; 
     status CLOSED; 
     mean_replacement_time 10000;
}

object fuse {
     name feeder_3_R3-12-47-1_fuse_42; 
     phases ACN; 
     from feeder_3_R3-12-47-1_node_459; 
     to feeder_3_R3-12-47-1_node_460; 
     current_limit 40; 
     status CLOSED; 
     mean_replacement_time 10000;
}

object fuse {
     name feeder_3_R3-12-47-1_fuse_43; 
     phases ABCN; 
     from feeder_3_R3-12-47-1_node_393; 
     to feeder_3_R3-12-47-1_node_493; 
     current_limit 140; 
     status CLOSED; 
     mean_replacement_time 10000;
}

object fuse {
     name feeder_3_R3-12-47-1_fuse_44; 
     phases ABCN; 
     from feeder_3_R3-12-47-1_node_499; 
     to feeder_3_R3-12-47-1_node_500; 
     current_limit 150; 
     status CLOSED; 
     mean_replacement_time 10000;
}

object fuse {
     name feeder_3_R3-12-47-1_fuse_45; 
     phases ABCN; 
     from feeder_3_R3-12-47-1_node_513; 
     to feeder_3_R3-12-47-1_node_514; 
     current_limit 150; 
     status CLOSED; 
     mean_replacement_time 10000;
}

object fuse {
     name feeder_3_R3-12-47-1_fuse_46; 
     phases ABCN; 
     from feeder_3_R3-12-47-1_node_523; 
     to feeder_3_R3-12-47-1_node_525; 
     current_limit 30; 
     status CLOSED; 
     mean_replacement_time 10000;
}

object fuse {
     name feeder_3_R3-12-47-1_fuse_47; 
     phases ABN; 
     from feeder_3_R3-12-47-1_node_527; 
     to feeder_3_R3-12-47-1_node_528; 
     current_limit 30; 
     status CLOSED; 
     mean_replacement_time 10000;
}

object fuse {
     name feeder_3_R3-12-47-1_fuse_48; 
     phases ABCN; 
     from feeder_3_R3-12-47-1_node_530; 
     to feeder_3_R3-12-47-1_node_531; 
     current_limit 100; 
     status CLOSED; 
     mean_replacement_time 10000;
}

object fuse {
     name feeder_3_R3-12-47-1_fuse_49; 
     phases ABCN; 
     from feeder_3_R3-12-47-1_node_534; 
     to feeder_3_R3-12-47-1_node_535; 
     current_limit 30; 
     status CLOSED; 
     mean_replacement_time 10000;
}

object fuse {
     name feeder_3_R3-12-47-1_fuse_50; 
     phases ABCN; 
     from feeder_3_R3-12-47-1_node_537; 
     to feeder_3_R3-12-47-1_node_538; 
     current_limit 10; 
     status CLOSED; 
     mean_replacement_time 10000;
}

object fuse {
     name feeder_3_R3-12-47-1_fuse_51; 
     phases ABCN; 
     from feeder_3_R3-12-47-1_node_387; 
     to feeder_3_R3-12-47-1_node_542; 
     current_limit 150; 
     status CLOSED; 
     mean_replacement_time 10000;
}

object fuse {
     name feeder_3_R3-12-47-1_fuse_52; 
     phases ABCN; 
     from feeder_3_R3-12-47-1_node_545; 
     to feeder_3_R3-12-47-1_node_546; 
     current_limit 100; 
     status CLOSED; 
     mean_replacement_time 10000;
}

object fuse {
     name feeder_3_R3-12-47-1_fuse_53; 
     phases ABCN; 
     from feeder_3_R3-12-47-1_node_566; 
     to feeder_3_R3-12-47-1_node_569; 
     current_limit 80; 
     status CLOSED; 
     mean_replacement_time 10000;
}

object fuse {
     name feeder_3_R3-12-47-1_fuse_54; 
     phases ABCN; 
     from feeder_3_R3-12-47-1_node_574; 
     to feeder_3_R3-12-47-1_node_576; 
     current_limit 15; 
     status CLOSED; 
     mean_replacement_time 10000;
}

object fuse {
     name feeder_3_R3-12-47-1_fuse_55; 
     phases ABCN; 
     from feeder_3_R3-12-47-1_node_580; 
     to feeder_3_R3-12-47-1_node_581; 
     current_limit 150; 
     status CLOSED; 
     mean_replacement_time 10000;
}

object fuse {
     name feeder_3_R3-12-47-1_fuse_56; 
     phases ABCN; 
     from feeder_3_R3-12-47-1_node_586; 
     to feeder_3_R3-12-47-1_node_587; 
     current_limit 80; 
     status CLOSED; 
     mean_replacement_time 10000;
}

object fuse {
     name feeder_3_R3-12-47-1_fuse_57; 
     phases ABCN; 
     from feeder_3_R3-12-47-1_node_589; 
     to feeder_3_R3-12-47-1_node_590; 
     current_limit 150; 
     status CLOSED; 
     mean_replacement_time 10000;
}

object fuse {
     name feeder_3_R3-12-47-1_fuse_58; 
     phases ABCN; 
     from feeder_3_R3-12-47-1_node_596; 
     to feeder_3_R3-12-47-1_node_597; 
     current_limit 150; 
     status CLOSED; 
     mean_replacement_time 10000;
}

object fuse {
     name feeder_3_R3-12-47-1_fuse_59; 
     phases ABCN; 
     from feeder_3_R3-12-47-1_node_543; 
     to feeder_3_R3-12-47-1_node_611; 
     current_limit 10; 
     status CLOSED; 
     mean_replacement_time 10000;
}

object fuse {
     name feeder_3_R3-12-47-1_fuse_60; 
     phases ABCN; 
     from feeder_3_R3-12-47-1_node_614; 
     to feeder_3_R3-12-47-1_node_615; 
     current_limit 80; 
     status CLOSED; 
     mean_replacement_time 10000;
}

object fuse {
     name feeder_3_R3-12-47-1_fuse_61; 
     phases ABCN; 
     from feeder_3_R3-12-47-1_node_623; 
     to feeder_3_R3-12-47-1_node_632; 
     current_limit 150; 
     status CLOSED; 
     mean_replacement_time 10000;
}

object line_configuration {
     name f3_line_configuration_24;
     conductor_A f3_overhead_line_conductor_2;
     conductor_B f3_overhead_line_conductor_2;
     conductor_C f3_overhead_line_conductor_2;
     conductor_N f3_overhead_line_conductor_2;
     spacing f3_line_spacing_17;
}  

object line_configuration {
     name f3_line_configuration_25;
     conductor_A f3_overhead_line_conductor_2;
     conductor_B f3_overhead_line_conductor_2;
     conductor_N f3_overhead_line_conductor_2;
     spacing f3_line_spacing_18;
}  

object line_configuration {
     name f3_line_configuration_26;
     conductor_B f3_overhead_line_conductor_2;
     conductor_C f3_overhead_line_conductor_2;
     conductor_N f3_overhead_line_conductor_2;
     spacing f3_line_spacing_19;
}  

object line_configuration {
     name f3_line_configuration_27;
     conductor_A f3_underground_line_conductor_3;
     conductor_B f3_underground_line_conductor_3;
     conductor_C f3_underground_line_conductor_3;
     conductor_N f3_underground_line_conductor_3;
     spacing f3_line_spacing_17;
}  

object line_configuration {
     name f3_line_configuration_28;
     conductor_A f3_overhead_line_conductor_4;
     conductor_C f3_overhead_line_conductor_4;
     conductor_N f3_overhead_line_conductor_4;
     spacing f3_line_spacing_20;
}  

object line_configuration {
     name f3_line_configuration_29;
     conductor_A f3_underground_line_conductor_5;
     conductor_C f3_underground_line_conductor_5;
     conductor_N f3_underground_line_conductor_5;
     spacing f3_line_spacing_20;
}  

object line_configuration {
     name f3_line_configuration_30;
     conductor_B f3_underground_line_conductor_3;
     conductor_C f3_underground_line_conductor_3;
     conductor_N f3_underground_line_conductor_3;
     spacing f3_line_spacing_19;
}  

object line_configuration {
     name f3_line_configuration_31;
     conductor_A f3_underground_line_conductor_5;
     conductor_B f3_underground_line_conductor_5;
     conductor_C f3_underground_line_conductor_5;
     conductor_N f3_underground_line_conductor_5;
     spacing f3_line_spacing_17;
}  

object line_configuration {
     name f3_line_configuration_32;
     conductor_A f3_underground_line_conductor_3;
     conductor_C f3_underground_line_conductor_3;
     conductor_N f3_underground_line_conductor_3;
     spacing f3_line_spacing_20;
}  

object line_configuration {
     name f3_line_configuration_33;
     conductor_A f3_overhead_line_conductor_6;
     conductor_C f3_overhead_line_conductor_6;
     conductor_N f3_overhead_line_conductor_6;
     spacing f3_line_spacing_20;
}  

object line_configuration {
     name f3_line_configuration_34;
     conductor_A f3_overhead_line_conductor_4;
     conductor_N f3_overhead_line_conductor_4;
     spacing f3_line_spacing_21;
}  

object line_configuration {
     name f3_line_configuration_35;
     conductor_A f3_overhead_line_conductor_7;
     conductor_B f3_overhead_line_conductor_7;
     conductor_C f3_overhead_line_conductor_7;
     conductor_N f3_overhead_line_conductor_7;
     spacing f3_line_spacing_17;
}  

object line_configuration {
     name f3_line_configuration_36;
     conductor_A f3_overhead_line_conductor_4;
     conductor_B f3_overhead_line_conductor_4;
     conductor_C f3_overhead_line_conductor_4;
     conductor_N f3_overhead_line_conductor_4;
     spacing f3_line_spacing_17;
}  

object line_configuration {
     name f3_line_configuration_37;
     conductor_A f3_underground_line_conductor_8;
     conductor_B f3_underground_line_conductor_8;
     conductor_C f3_underground_line_conductor_8;
     conductor_N f3_underground_line_conductor_8;
     spacing f3_line_spacing_17;
}  

object line_configuration {
     name f3_line_configuration_38;
     conductor_B f3_underground_line_conductor_3;
     conductor_N f3_underground_line_conductor_3;
     spacing f3_line_spacing_22;
}  

object line_configuration {
     name f3_line_configuration_39;
     conductor_A f3_underground_line_conductor_3;
     conductor_N f3_underground_line_conductor_3;
     spacing f3_line_spacing_21;
}  

object line_configuration {
     name f3_line_configuration_40;
     conductor_A f3_underground_line_conductor_3;
     conductor_B f3_underground_line_conductor_3;
     conductor_N f3_underground_line_conductor_3;
     spacing f3_line_spacing_18;
}  

object line_configuration {
     name f3_line_configuration_41;
     conductor_C f3_underground_line_conductor_3;
     conductor_N f3_underground_line_conductor_3;
     spacing f3_line_spacing_23;
}  

object line_configuration {
     name f3_line_configuration_42;
     conductor_A f3_overhead_line_conductor_9;
     conductor_B f3_overhead_line_conductor_9;
     conductor_C f3_overhead_line_conductor_9;
     conductor_N f3_overhead_line_conductor_9;
     spacing f3_line_spacing_17;
}  

object line_configuration {
     name f3_line_configuration_43;
     conductor_B f3_overhead_line_conductor_10;
     conductor_N f3_overhead_line_conductor_10;
     spacing f3_line_spacing_22;
}  

object line_configuration {
     name f3_line_configuration_44;
     conductor_A f3_overhead_line_conductor_2;
     conductor_C f3_overhead_line_conductor_2;
     conductor_N f3_overhead_line_conductor_2;
     spacing f3_line_spacing_20;
}  

object line_configuration {
     name f3_line_configuration_45;
     conductor_A f3_underground_line_conductor_5;
     conductor_B f3_underground_line_conductor_5;
     conductor_N f3_underground_line_conductor_5;
     spacing f3_line_spacing_18;
}  

object line_configuration {
     name f3_line_configuration_46;
     conductor_B f3_overhead_line_conductor_4;
     conductor_C f3_overhead_line_conductor_4;
     conductor_N f3_overhead_line_conductor_4;
     spacing f3_line_spacing_19;
}  

object line_configuration {
     name f3_line_configuration_47;
     conductor_A f3_underground_line_conductor_11;
     conductor_B f3_underground_line_conductor_11;
     conductor_C f3_underground_line_conductor_11;
     conductor_N f3_underground_line_conductor_11;
     spacing f3_line_spacing_17;
}  

object line_configuration {
     name f3_line_configuration_48;
     conductor_A f3_underground_line_conductor_12;
     conductor_B f3_underground_line_conductor_12;
     conductor_C f3_underground_line_conductor_12;
     conductor_N f3_underground_line_conductor_12;
     spacing f3_line_spacing_17;
}  

object line_configuration {
     name f3_line_configuration_49;
     conductor_A f3_underground_line_conductor_13;
     conductor_B f3_underground_line_conductor_13;
     conductor_C f3_underground_line_conductor_13;
     conductor_N f3_underground_line_conductor_13;
     spacing f3_line_spacing_17;
}  

object line_configuration {
     name f3_line_configuration_50;
     conductor_A f3_underground_line_conductor_14;
     conductor_B f3_underground_line_conductor_14;
     conductor_C f3_underground_line_conductor_14;
     conductor_N f3_underground_line_conductor_14;
     spacing f3_line_spacing_17;
}  

object line_configuration {
     name f3_line_configuration_51;
     conductor_A f3_underground_line_conductor_14;
     conductor_B f3_underground_line_conductor_14;
     conductor_N f3_underground_line_conductor_14;
     spacing f3_line_spacing_18;
}  

object line_configuration {
     name f3_line_configuration_52;
     conductor_A f3_overhead_line_conductor_4;
     conductor_B f3_overhead_line_conductor_4;
     conductor_N f3_overhead_line_conductor_4;
     spacing f3_line_spacing_18;
}  

object line_configuration {
     name f3_line_configuration_53;
     conductor_A f3_overhead_line_conductor_10;
     conductor_B f3_overhead_line_conductor_10;
     conductor_C f3_overhead_line_conductor_10;
     conductor_N f3_overhead_line_conductor_10;
     spacing f3_line_spacing_17;
}  

object line_configuration {
     name f3_line_configuration_54;
     conductor_C f3_overhead_line_conductor_4;
     conductor_N f3_overhead_line_conductor_4;
     spacing f3_line_spacing_23;
}  

object line_configuration {
     name f3_line_configuration_55;
     conductor_C f3_overhead_line_conductor_10;
     conductor_N f3_overhead_line_conductor_10;
     spacing f3_line_spacing_23;
}  

object line_configuration {
     name f3_line_configuration_56;
     conductor_C f3_overhead_line_conductor_2;
     conductor_N f3_overhead_line_conductor_2;
     spacing f3_line_spacing_23;
}  

object line_configuration {
     name f3_line_configuration_57;
     conductor_A f3_underground_line_conductor_14;
     conductor_C f3_underground_line_conductor_14;
     conductor_N f3_underground_line_conductor_14;
     spacing f3_line_spacing_20;
}  

object line_configuration {
     name f3_line_configuration_58;
     conductor_A f3_underground_line_conductor_5;
     conductor_N f3_underground_line_conductor_5;
     spacing f3_line_spacing_21;
}  

object line_configuration {
     name f3_line_configuration_59;
     conductor_A f3_overhead_line_conductor_9;
     conductor_N f3_overhead_line_conductor_9;
     spacing f3_line_spacing_21;
}  

object line_configuration {
     name f3_line_configuration_60;
     conductor_A f3_overhead_line_conductor_6;
     conductor_B f3_overhead_line_conductor_6;
     conductor_C f3_overhead_line_conductor_6;
     conductor_N f3_overhead_line_conductor_6;
     spacing f3_line_spacing_17;
}  

object line_configuration {
     name f3_line_configuration_61;
     conductor_A f3_overhead_line_conductor_15;
     conductor_B f3_overhead_line_conductor_15;
     conductor_C f3_overhead_line_conductor_15;
     conductor_N f3_overhead_line_conductor_15;
     spacing f3_line_spacing_17;
}  

object line_configuration {
     name f3_line_configuration_62;
     conductor_B f3_underground_line_conductor_5;
     conductor_C f3_underground_line_conductor_5;
     conductor_N f3_underground_line_conductor_5;
     spacing f3_line_spacing_19;
}  

object line_configuration {
     name f3_line_configuration_63;
     conductor_A f3_underground_line_conductor_16;
     conductor_B f3_underground_line_conductor_16;
     conductor_C f3_underground_line_conductor_16;
     conductor_N f3_underground_line_conductor_16;
     spacing f3_line_spacing_17;
}  

object line_spacing {
     name f3_line_spacing_17;
     distance_AB 37.0 in;
     distance_BC 37.0 in;
     distance_AC 37.0 in;
     distance_AN 37.0 in;
     distance_BN 37.0 in;
     distance_CN 37.0 in;
}  

object line_spacing {
     name f3_line_spacing_18;
     distance_AB 37.0 in;
     distance_AN 37.0 in;
     distance_BN 37.0 in;
}  

object line_spacing {
     name f3_line_spacing_19;
     distance_BC 37.0 in;
     distance_BN 37.0 in;
     distance_CN 37.0 in;
}  

object line_spacing {
     name f3_line_spacing_20;
     distance_AC 37.0 in;
     distance_AN 37.0 in;
     distance_CN 37.0 in;
}  

object line_spacing {
     name f3_line_spacing_21;
     distance_AN 37.0 in;
}  

object line_spacing {
     name f3_line_spacing_22;
     distance_BN 37.0 in;
}  

object line_spacing {
     name f3_line_spacing_23;
     distance_CN 37.0 in;
}  

// Static Loads

object load {
     name feeder_3_R3-12-47-1_load_1; 
     parent feeder_3_R3-12-47-1_meter_1; 
     phases ABCN; 
     constant_power_A_real 113333.3*power_mag_1;
     constant_power_A_reac 70200.0*power_mag_1;
     constant_power_B_real 113333.3*power_mag_1;
     constant_power_B_reac 70200.0*power_mag_1;
     constant_power_C_real 113333.3*power_mag_1;
     constant_power_C_reac 70200.0*power_mag_1;
     nominal_voltage 7199.558; 
     load_class C; 
}  

object load {
     name feeder_3_R3-12-47-1_load_2; 
     parent feeder_3_R3-12-47-1_meter_2; 
     phases ABCN; 
     constant_power_A_real 23683.3*power_mag_1;
     constant_power_A_reac 14402.7*power_mag_1;
     constant_power_B_real 23683.3*power_mag_1;
     constant_power_B_reac 14402.7*power_mag_1;
     constant_power_C_real 23683.3*power_mag_1;
     constant_power_C_reac 14402.7*power_mag_1;
     nominal_voltage 7199.558; 
     load_class C; 
}  

object load {
     name feeder_3_R3-12-47-1_load_3; 
     parent feeder_3_R3-12-47-1_meter_3; 
     phases ABCN; 
     constant_power_A_real 5913.9*power_mag_1;
     constant_power_A_reac 3596.5*power_mag_1;
     constant_power_B_real 5913.9*power_mag_1;
     constant_power_B_reac 3596.5*power_mag_1;
     constant_power_C_real 5913.9*power_mag_1;
     constant_power_C_reac 3596.5*power_mag_1;
     nominal_voltage 7199.558; 
     load_class C; 
}  

object load {
     name feeder_3_R3-12-47-1_load_4; 
     parent feeder_3_R3-12-47-1_meter_4; 
     phases ABCN; 
     constant_power_A_real 5913.9*power_mag_1;
     constant_power_A_reac 3596.5*power_mag_1;
     constant_power_B_real 5913.9*power_mag_1;
     constant_power_B_reac 3596.5*power_mag_1;
     constant_power_C_real 5913.9*power_mag_1;
     constant_power_C_reac 3596.5*power_mag_1;
     nominal_voltage 7199.558; 
     load_class C; 
}  

object load {
     name feeder_3_R3-12-47-1_load_5; 
     parent feeder_3_R3-12-47-1_meter_5; 
     phases ABCN; 
     constant_power_A_real 5913.9*power_mag_1;
     constant_power_A_reac 3596.5*power_mag_1;
     constant_power_B_real 5913.9*power_mag_1;
     constant_power_B_reac 3596.5*power_mag_1;
     constant_power_C_real 5913.9*power_mag_1;
     constant_power_C_reac 3596.5*power_mag_1;
     nominal_voltage 7199.558; 
     load_class C; 
}  

object load {
     name feeder_3_R3-12-47-1_load_6; 
     parent feeder_3_R3-12-47-1_meter_6; 
     phases ABCN; 
     constant_power_A_real 27333.3*power_mag_1;
     constant_power_A_reac 16933.3*power_mag_1;
     constant_power_B_real 27333.3*power_mag_1;
     constant_power_B_reac 16933.3*power_mag_1;
     constant_power_C_real 27333.3*power_mag_1;
     constant_power_C_reac 16933.3*power_mag_1;
     nominal_voltage 7199.558; 
     load_class C; 
}  

object load {
     name feeder_3_R3-12-47-1_load_7; 
     parent feeder_3_R3-12-47-1_meter_7; 
     phases ABCN; 
     constant_power_A_real 134466.7*power_mag_1;
     constant_power_A_reac 83333.3*power_mag_1;
     constant_power_B_real 134466.7*power_mag_1;
     constant_power_B_reac 83333.3*power_mag_1;
     constant_power_C_real 134466.7*power_mag_1;
     constant_power_C_reac 83333.3*power_mag_1;
     nominal_voltage 7199.558; 
     load_class C; 
}  

object load {
     name feeder_3_R3-12-47-1_load_8; 
     parent feeder_3_R3-12-47-1_meter_8; 
     phases ABCN; 
     constant_power_A_real 23683.3*power_mag_1;
     constant_power_A_reac 14402.7*power_mag_1;
     constant_power_B_real 23683.3*power_mag_1;
     constant_power_B_reac 14402.7*power_mag_1;
     constant_power_C_real 23683.3*power_mag_1;
     constant_power_C_reac 14402.7*power_mag_1;
     nominal_voltage 7199.558; 
     load_class C; 
}  

object load {
     name feeder_3_R3-12-47-1_load_9; 
     parent feeder_3_R3-12-47-1_meter_9; 
     phases ABCN; 
     constant_power_A_real 11835.4*power_mag_1;
     constant_power_A_reac 7197.6*power_mag_1;
     constant_power_B_real 11835.4*power_mag_1;
     constant_power_B_reac 7197.6*power_mag_1;
     constant_power_C_real 11835.4*power_mag_1;
     constant_power_C_reac 7197.6*power_mag_1;
     nominal_voltage 7199.558; 
     load_class C; 
}  

object load {
     name feeder_3_R3-12-47-1_load_10; 
     parent feeder_3_R3-12-47-1_meter_10; 
     phases ABCN; 
     constant_power_A_real 17769.4*power_mag_1;
     constant_power_A_reac 10806.3*power_mag_1;
     constant_power_B_real 17769.4*power_mag_1;
     constant_power_B_reac 10806.3*power_mag_1;
     constant_power_C_real 17769.4*power_mag_1;
     constant_power_C_reac 10806.3*power_mag_1;
     nominal_voltage 7199.558; 
     load_class C; 
}  

object load {
     name feeder_3_R3-12-47-1_load_11; 
     parent feeder_3_R3-12-47-1_meter_11; 
     phases BCN; 
     constant_power_B_real 2956.9*power_mag_1;
     constant_power_B_reac 1798.2*power_mag_1;
     constant_power_C_real 2956.9*power_mag_1;
     constant_power_C_reac 1798.2*power_mag_1;
     nominal_voltage 7199.558; 
     load_class C; 
}  

object load {
     name feeder_3_R3-12-47-1_load_12; 
     parent feeder_3_R3-12-47-1_meter_12; 
     phases ACN; 
     constant_power_A_real 2956.9*power_mag_1;
     constant_power_A_reac 1798.2*power_mag_1;
     constant_power_C_real 2956.9*power_mag_1;
     constant_power_C_reac 1798.2*power_mag_1;
     nominal_voltage 7199.558; 
     load_class C; 
}  

object load {
     name feeder_3_R3-12-47-1_load_13; 
     parent feeder_3_R3-12-47-1_meter_13; 
     phases ABCN; 
     constant_power_A_real 23683.3*power_mag_1;
     constant_power_A_reac 14402.7*power_mag_1;
     constant_power_B_real 23683.3*power_mag_1;
     constant_power_B_reac 14402.7*power_mag_1;
     constant_power_C_real 23683.3*power_mag_1;
     constant_power_C_reac 14402.7*power_mag_1;
     nominal_voltage 7199.558; 
     load_class C; 
}  

object load {
     name feeder_3_R3-12-47-1_load_14; 
     parent feeder_3_R3-12-47-1_meter_14; 
     phases ABCN; 
     constant_power_A_real 5913.9*power_mag_1;
     constant_power_A_reac 3596.5*power_mag_1;
     constant_power_B_real 5913.9*power_mag_1;
     constant_power_B_reac 3596.5*power_mag_1;
     constant_power_C_real 5913.9*power_mag_1;
     constant_power_C_reac 3596.5*power_mag_1;
     nominal_voltage 7199.558; 
     load_class C; 
}  

object load {
     name feeder_3_R3-12-47-1_load_15; 
     parent feeder_3_R3-12-47-1_meter_15; 
     phases ABCN; 
     constant_power_A_real 17769.4*power_mag_1;
     constant_power_A_reac 10806.3*power_mag_1;
     constant_power_B_real 17769.4*power_mag_1;
     constant_power_B_reac 10806.3*power_mag_1;
     constant_power_C_real 17769.4*power_mag_1;
     constant_power_C_reac 10806.3*power_mag_1;
     nominal_voltage 7199.558; 
     load_class C; 
}  

object load {
     name feeder_3_R3-12-47-1_load_16; 
     parent feeder_3_R3-12-47-1_meter_16; 
     phases ABCN; 
     constant_power_A_real 11835.4*power_mag_1;
     constant_power_A_reac 7197.6*power_mag_1;
     constant_power_B_real 11835.4*power_mag_1;
     constant_power_B_reac 7197.6*power_mag_1;
     constant_power_C_real 11835.4*power_mag_1;
     constant_power_C_reac 7197.6*power_mag_1;
     nominal_voltage 7199.558; 
     load_class C; 
}  

object load {
     name feeder_3_R3-12-47-1_load_17; 
     parent feeder_3_R3-12-47-1_meter_17; 
     phases ABCN; 
     constant_power_A_real 17769.4*power_mag_1;
     constant_power_A_reac 10806.3*power_mag_1;
     constant_power_B_real 17769.4*power_mag_1;
     constant_power_B_reac 10806.3*power_mag_1;
     constant_power_C_real 17769.4*power_mag_1;
     constant_power_C_reac 10806.3*power_mag_1;
     nominal_voltage 7199.558; 
     load_class C; 
}  

object load {
     name feeder_3_R3-12-47-1_load_18; 
     parent feeder_3_R3-12-47-1_meter_18; 
     phases ABCN; 
     constant_power_A_real 11835.4*power_mag_1;
     constant_power_A_reac 7197.6*power_mag_1;
     constant_power_B_real 11835.4*power_mag_1;
     constant_power_B_reac 7197.6*power_mag_1;
     constant_power_C_real 11835.4*power_mag_1;
     constant_power_C_reac 7197.6*power_mag_1;
     nominal_voltage 7199.558; 
     load_class C; 
}  

object load {
     name feeder_3_R3-12-47-1_load_19; 
     parent feeder_3_R3-12-47-1_meter_19; 
     phases ABCN; 
     constant_power_A_real 23683.3*power_mag_1;
     constant_power_A_reac 14402.7*power_mag_1;
     constant_power_B_real 23683.3*power_mag_1;
     constant_power_B_reac 14402.7*power_mag_1;
     constant_power_C_real 23683.3*power_mag_1;
     constant_power_C_reac 14402.7*power_mag_1;
     nominal_voltage 7199.558; 
     load_class C; 
}  

object load {
     name feeder_3_R3-12-47-1_load_20; 
     parent feeder_3_R3-12-47-1_meter_20; 
     phases ABCN; 
     constant_power_A_real 5913.9*power_mag_1;
     constant_power_A_reac 3596.5*power_mag_1;
     constant_power_B_real 5913.9*power_mag_1;
     constant_power_B_reac 3596.5*power_mag_1;
     constant_power_C_real 5913.9*power_mag_1;
     constant_power_C_reac 3596.5*power_mag_1;
     nominal_voltage 7199.558; 
     load_class C; 
}  

object load {
     name feeder_3_R3-12-47-1_load_21; 
     parent feeder_3_R3-12-47-1_meter_21; 
     phases ABN; 
     constant_power_A_real 2956.9*power_mag_1;
     constant_power_A_reac 1798.2*power_mag_1;
     constant_power_B_real 2956.9*power_mag_1;
     constant_power_B_reac 1798.2*power_mag_1;
     nominal_voltage 7199.558; 
     load_class C; 
}  

object load {
     name feeder_3_R3-12-47-1_load_22; 
     parent feeder_3_R3-12-47-1_meter_22; 
     phases ABCN; 
     constant_power_A_real 1169.7*power_mag_1;
     constant_power_A_reac 711.4*power_mag_1;
     constant_power_B_real   0.0*power_mag_1;
     constant_power_B_reac   0.0*power_mag_1;
     constant_power_C_real 1169.7*power_mag_1;
     constant_power_C_reac 711.4*power_mag_1;
     nominal_voltage 7199.558; 
     load_class C; 
}  

object load {
     name feeder_3_R3-12-47-1_load_23; 
     parent feeder_3_R3-12-47-1_meter_23; 
     phases ABCN; 
     constant_power_A_real 5913.9*power_mag_1;
     constant_power_A_reac 3596.5*power_mag_1;
     constant_power_B_real 5913.9*power_mag_1;
     constant_power_B_reac 3596.5*power_mag_1;
     constant_power_C_real 5913.9*power_mag_1;
     constant_power_C_reac 3596.5*power_mag_1;
     nominal_voltage 7199.558; 
     load_class C; 
}  

object load {
     name feeder_3_R3-12-47-1_load_24; 
     parent feeder_3_R3-12-47-1_meter_24; 
     phases ABCN; 
     constant_power_A_real 1169.7*power_mag_1;
     constant_power_A_reac 711.4*power_mag_1;
     constant_power_B_real 1169.7*power_mag_1;
     constant_power_B_reac 711.4*power_mag_1;
     constant_power_C_real 1169.7*power_mag_1;
     constant_power_C_reac 711.4*power_mag_1;
     nominal_voltage 7199.558; 
     load_class C; 
}  

object load {
     name feeder_3_R3-12-47-1_load_25; 
     parent feeder_3_R3-12-47-1_meter_25; 
     phases ABCN; 
     constant_power_A_real   0.0*power_mag_1;
     constant_power_A_reac   0.0*power_mag_1;
     constant_power_B_real 11835.4*power_mag_1;
     constant_power_B_reac 7197.6*power_mag_1;
     constant_power_C_real 11835.4*power_mag_1;
     constant_power_C_reac 7197.6*power_mag_1;
     nominal_voltage 7199.558; 
     load_class C; 
}  

object load {
     name feeder_3_R3-12-47-1_load_26; 
     parent feeder_3_R3-12-47-1_meter_26; 
     phases ABCN; 
     constant_power_A_real 22666.7*power_mag_1;
     constant_power_A_reac 14066.7*power_mag_1;
     constant_power_B_real 22666.7*power_mag_1;
     constant_power_B_reac 14066.7*power_mag_1;
     constant_power_C_real 22666.7*power_mag_1;
     constant_power_C_reac 14066.7*power_mag_1;
     nominal_voltage 7199.558; 
     load_class C; 
}  

object load {
     name feeder_3_R3-12-47-1_load_27; 
     parent feeder_3_R3-12-47-1_meter_27; 
     phases ACN; 
     constant_power_A_real 2956.9*power_mag_1;
     constant_power_A_reac 1798.2*power_mag_1;
     constant_power_C_real 2956.9*power_mag_1;
     constant_power_C_reac 1798.2*power_mag_1;
     nominal_voltage 7199.558; 
     load_class C; 
}  

object load {
     name feeder_3_R3-12-47-1_load_28; 
     parent feeder_3_R3-12-47-1_meter_28; 
     phases ABCN; 
     constant_power_A_real 5913.9*power_mag_1;
     constant_power_A_reac 3596.5*power_mag_1;
     constant_power_B_real 5913.9*power_mag_1;
     constant_power_B_reac 3596.5*power_mag_1;
     constant_power_C_real 5913.9*power_mag_1;
     constant_power_C_reac 3596.5*power_mag_1;
     nominal_voltage 7199.558; 
     load_class C; 
}  

object load {
     name feeder_3_R3-12-47-1_load_29; 
     parent feeder_3_R3-12-47-1_meter_29; 
     phases ABCN; 
     constant_power_A_real 17769.4*power_mag_1;
     constant_power_A_reac 10806.3*power_mag_1;
     constant_power_B_real 17769.4*power_mag_1;
     constant_power_B_reac 10806.3*power_mag_1;
     constant_power_C_real 17769.4*power_mag_1;
     constant_power_C_reac 10806.3*power_mag_1;
     nominal_voltage 7199.558; 
     load_class C; 
}  

object load {
     name feeder_3_R3-12-47-1_load_30; 
     parent feeder_3_R3-12-47-1_meter_30; 
     phases ABCN; 
     constant_power_A_real 11835.4*power_mag_1;
     constant_power_A_reac 7197.6*power_mag_1;
     constant_power_B_real 11835.4*power_mag_1;
     constant_power_B_reac 7197.6*power_mag_1;
     constant_power_C_real 11835.4*power_mag_1;
     constant_power_C_reac 7197.6*power_mag_1;
     nominal_voltage 7199.558; 
     load_class C; 
}  

object load {
     name feeder_3_R3-12-47-1_load_31; 
     parent feeder_3_R3-12-47-1_meter_31; 
     phases ABCN; 
     constant_power_A_real 5913.9*power_mag_1;
     constant_power_A_reac 3596.5*power_mag_1;
     constant_power_B_real 5913.9*power_mag_1;
     constant_power_B_reac 3596.5*power_mag_1;
     constant_power_C_real 5913.9*power_mag_1;
     constant_power_C_reac 3596.5*power_mag_1;
     nominal_voltage 7199.558; 
     load_class C; 
}  

object load {
     name feeder_3_R3-12-47-1_load_32; 
     parent feeder_3_R3-12-47-1_meter_32; 
     phases ABCN; 
     constant_power_A_real 11835.4*power_mag_1;
     constant_power_A_reac 7197.6*power_mag_1;
     constant_power_B_real 11835.4*power_mag_1;
     constant_power_B_reac 7197.6*power_mag_1;
     constant_power_C_real 11835.4*power_mag_1;
     constant_power_C_reac 7197.6*power_mag_1;
     nominal_voltage 7199.558; 
     load_class C; 
}  

object load {
     name feeder_3_R3-12-47-1_load_33; 
     parent feeder_3_R3-12-47-1_meter_33; 
     phases ABN; 
     constant_power_A_real 2956.9*power_mag_1;
     constant_power_A_reac 1798.2*power_mag_1;
     constant_power_B_real 2956.9*power_mag_1;
     constant_power_B_reac 1798.2*power_mag_1;
     nominal_voltage 7199.558; 
     load_class C; 
}  

object load {
     name feeder_3_R3-12-47-1_load_34; 
     parent feeder_3_R3-12-47-1_meter_34; 
     phases ABCN; 
     constant_power_A_real 5913.9*power_mag_1;
     constant_power_A_reac 3596.5*power_mag_1;
     constant_power_B_real 5913.9*power_mag_1;
     constant_power_B_reac 3596.5*power_mag_1;
     constant_power_C_real 5913.9*power_mag_1;
     constant_power_C_reac 3596.5*power_mag_1;
     nominal_voltage 7199.558; 
     load_class C; 
}  

object load {
     name feeder_3_R3-12-47-1_load_35; 
     parent feeder_3_R3-12-47-1_meter_35; 
     phases ABCN; 
     constant_power_A_real 5913.9*power_mag_1;
     constant_power_A_reac 3596.5*power_mag_1;
     constant_power_B_real 5913.9*power_mag_1;
     constant_power_B_reac 3596.5*power_mag_1;
     constant_power_C_real 5913.9*power_mag_1;
     constant_power_C_reac 3596.5*power_mag_1;
     nominal_voltage 7199.558; 
     load_class C; 
}  

object load {
     name feeder_3_R3-12-47-1_load_36; 
     parent feeder_3_R3-12-47-1_meter_36; 
     phases ABCN; 
     constant_power_A_real 4731.7*power_mag_1;
     constant_power_A_reac 2877.5*power_mag_1;
     constant_power_B_real 4731.7*power_mag_1;
     constant_power_B_reac 2877.5*power_mag_1;
     constant_power_C_real 4731.7*power_mag_1;
     constant_power_C_reac 2877.5*power_mag_1;
     nominal_voltage 7199.558; 
     load_class C; 
}  

object load {
     name feeder_3_R3-12-47-1_load_37; 
     parent feeder_3_R3-12-47-1_meter_37; 
     phases ABCN; 
     constant_power_A_real 11835.4*power_mag_1;
     constant_power_A_reac 7197.6*power_mag_1;
     constant_power_B_real 11835.4*power_mag_1;
     constant_power_B_reac 7197.6*power_mag_1;
     constant_power_C_real 11835.4*power_mag_1;
     constant_power_C_reac 7197.6*power_mag_1;
     nominal_voltage 7199.558; 
     load_class C; 
}  

object load {
     name feeder_3_R3-12-47-1_load_38; 
     parent feeder_3_R3-12-47-1_meter_38; 
     phases ABCN; 
     constant_power_A_real 2956.9*power_mag_1;
     constant_power_A_reac 1798.2*power_mag_1;
     constant_power_B_real 2956.9*power_mag_1;
     constant_power_B_reac 1798.2*power_mag_1;
     constant_power_C_real   0.0*power_mag_1;
     constant_power_C_reac   0.0*power_mag_1;
     nominal_voltage 7199.558; 
     load_class C; 
}  

object load {
     name feeder_3_R3-12-47-1_load_39; 
     parent feeder_3_R3-12-47-1_meter_39; 
     phases ABCN; 
     constant_power_A_real 3561.9*power_mag_1;
     constant_power_A_reac 2166.2*power_mag_1;
     constant_power_B_real 3561.9*power_mag_1;
     constant_power_B_reac 2166.2*power_mag_1;
     constant_power_C_real 3561.9*power_mag_1;
     constant_power_C_reac 2166.2*power_mag_1;
     nominal_voltage 7199.558; 
     load_class C; 
}  

object load {
     name feeder_3_R3-12-47-1_load_40; 
     parent feeder_3_R3-12-47-1_meter_40; 
     phases ABCN; 
     constant_power_A_real 6666.7*power_mag_1;
     constant_power_A_reac 4133.3*power_mag_1;
     constant_power_B_real 6666.7*power_mag_1;
     constant_power_B_reac 4133.3*power_mag_1;
     constant_power_C_real 6666.7*power_mag_1;
     constant_power_C_reac 4133.3*power_mag_1;
     nominal_voltage 7199.558; 
     load_class C; 
}  

object load {
     name feeder_3_R3-12-47-1_load_41; 
     parent feeder_3_R3-12-47-1_meter_41; 
     phases ABCN; 
     constant_power_A_real   0.0*power_mag_1;
     constant_power_A_reac   0.0*power_mag_1;
     constant_power_B_real 4435.4*power_mag_1;
     constant_power_B_reac 2697.3*power_mag_1;
     constant_power_C_real 4435.4*power_mag_1;
     constant_power_C_reac 2697.3*power_mag_1;
     nominal_voltage 7199.558; 
     load_class C; 
}  

object load {
     name feeder_3_R3-12-47-1_load_42; 
     parent feeder_3_R3-12-47-1_meter_42; 
     phases ABCN; 
     constant_power_A_real 1787.2*power_mag_1;
     constant_power_A_reac 1086.9*power_mag_1;
     constant_power_B_real   0.0*power_mag_1;
     constant_power_B_reac   0.0*power_mag_1;
     constant_power_C_real 1787.2*power_mag_1;
     constant_power_C_reac 1086.9*power_mag_1;
     nominal_voltage 7199.558; 
     load_class C; 
}  

object load {
     name feeder_3_R3-12-47-1_load_43; 
     parent feeder_3_R3-12-47-1_meter_43; 
     phases ABCN; 
     constant_power_A_real 23683.3*power_mag_1;
     constant_power_A_reac 14402.7*power_mag_1;
     constant_power_B_real 23683.3*power_mag_1;
     constant_power_B_reac 14402.7*power_mag_1;
     constant_power_C_real 23683.3*power_mag_1;
     constant_power_C_reac 14402.7*power_mag_1;
     nominal_voltage 7199.558; 
     load_class C; 
}  

object load {
     name feeder_3_R3-12-47-1_load_44; 
     parent feeder_3_R3-12-47-1_meter_44; 
     phases ABCN; 
     constant_power_A_real 23683.3*power_mag_1;
     constant_power_A_reac 14402.7*power_mag_1;
     constant_power_B_real 23683.3*power_mag_1;
     constant_power_B_reac 14402.7*power_mag_1;
     constant_power_C_real 23683.3*power_mag_1;
     constant_power_C_reac 14402.7*power_mag_1;
     nominal_voltage 7199.558; 
     load_class C; 
}  

object load {
     name feeder_3_R3-12-47-1_load_45; 
     parent feeder_3_R3-12-47-1_meter_45; 
     phases ABCN; 
     constant_power_A_real 11800.0*power_mag_1;
     constant_power_A_reac 7266.7*power_mag_1;
     constant_power_B_real 11800.0*power_mag_1;
     constant_power_B_reac 7266.7*power_mag_1;
     constant_power_C_real 11800.0*power_mag_1;
     constant_power_C_reac 7266.7*power_mag_1;
     nominal_voltage 7199.558; 
     load_class C; 
}  

object load {
     name feeder_3_R3-12-47-1_load_46; 
     parent feeder_3_R3-12-47-1_meter_46; 
     phases ABCN; 
     constant_power_A_real 1169.7*power_mag_1;
     constant_power_A_reac 711.4*power_mag_1;
     constant_power_B_real   0.0*power_mag_1;
     constant_power_B_reac   0.0*power_mag_1;
     constant_power_C_real 1169.7*power_mag_1;
     constant_power_C_reac 711.4*power_mag_1;
     nominal_voltage 7199.558; 
     load_class C; 
}  

object load {
     name feeder_3_R3-12-47-1_load_47; 
     parent feeder_3_R3-12-47-1_meter_47; 
     phases ABCN; 
     constant_power_A_real 17769.4*power_mag_1;
     constant_power_A_reac 10806.3*power_mag_1;
     constant_power_B_real 17769.4*power_mag_1;
     constant_power_B_reac 10806.3*power_mag_1;
     constant_power_C_real 17769.4*power_mag_1;
     constant_power_C_reac 10806.3*power_mag_1;
     nominal_voltage 7199.558; 
     load_class C; 
}  

object load {
     name feeder_3_R3-12-47-1_load_48; 
     parent feeder_3_R3-12-47-1_meter_48; 
     phases ABCN; 
     constant_power_A_real 11835.4*power_mag_1;
     constant_power_A_reac 7197.6*power_mag_1;
     constant_power_B_real 11835.4*power_mag_1;
     constant_power_B_reac 7197.6*power_mag_1;
     constant_power_C_real 11835.4*power_mag_1;
     constant_power_C_reac 7197.6*power_mag_1;
     nominal_voltage 7199.558; 
     load_class C; 
}  

object load {
     name feeder_3_R3-12-47-1_load_49; 
     parent feeder_3_R3-12-47-1_meter_49; 
     phases ABCN; 
     constant_power_A_real 23683.3*power_mag_1;
     constant_power_A_reac 14402.7*power_mag_1;
     constant_power_B_real 23683.3*power_mag_1;
     constant_power_B_reac 14402.7*power_mag_1;
     constant_power_C_real 23683.3*power_mag_1;
     constant_power_C_reac 14402.7*power_mag_1;
     nominal_voltage 7199.558; 
     load_class C; 
}  

object load {
     name feeder_3_R3-12-47-1_load_50; 
     parent feeder_3_R3-12-47-1_meter_50; 
     phases ABCN; 
     constant_power_A_real 11835.4*power_mag_1;
     constant_power_A_reac 7197.6*power_mag_1;
     constant_power_B_real 11835.4*power_mag_1;
     constant_power_B_reac 7197.6*power_mag_1;
     constant_power_C_real 11835.4*power_mag_1;
     constant_power_C_reac 7197.6*power_mag_1;
     nominal_voltage 7199.558; 
     load_class C; 
}  

object load {
     name feeder_3_R3-12-47-1_load_51; 
     parent feeder_3_R3-12-47-1_meter_51; 
     phases ABCN; 
     constant_power_A_real 11835.4*power_mag_1;
     constant_power_A_reac 7197.6*power_mag_1;
     constant_power_B_real 11835.4*power_mag_1;
     constant_power_B_reac 7197.6*power_mag_1;
     constant_power_C_real 11835.4*power_mag_1;
     constant_power_C_reac 7197.6*power_mag_1;
     nominal_voltage 7199.558; 
     load_class C; 
}  

object load {
     name feeder_3_R3-12-47-1_load_52; 
     parent feeder_3_R3-12-47-1_meter_52; 
     phases ABCN; 
     constant_power_A_real 5913.9*power_mag_1;
     constant_power_A_reac 3596.5*power_mag_1;
     constant_power_B_real 5913.9*power_mag_1;
     constant_power_B_reac 3596.5*power_mag_1;
     constant_power_C_real 5913.9*power_mag_1;
     constant_power_C_reac 3596.5*power_mag_1;
     nominal_voltage 7199.558; 
     load_class C; 
}  

object load {
     name feeder_3_R3-12-47-1_load_53; 
     parent feeder_3_R3-12-47-1_meter_53; 
     phases ABCN; 
     constant_power_A_real 64866.7*power_mag_1;
     constant_power_A_reac 40200.0*power_mag_1;
     constant_power_B_real 64866.7*power_mag_1;
     constant_power_B_reac 40200.0*power_mag_1;
     constant_power_C_real 64866.7*power_mag_1;
     constant_power_C_reac 40200.0*power_mag_1;
     nominal_voltage 7199.558; 
     load_class C; 
}  

object load {
     name feeder_3_R3-12-47-1_load_54; 
     parent feeder_3_R3-12-47-1_meter_54; 
     phases ABCN; 
     constant_power_A_real 5125.7*power_mag_1;
     constant_power_A_reac 3117.2*power_mag_1;
     constant_power_B_real 5125.7*power_mag_1;
     constant_power_B_reac 3117.2*power_mag_1;
     constant_power_C_real 5125.7*power_mag_1;
     constant_power_C_reac 3117.2*power_mag_1;
     nominal_voltage 7199.558; 
     load_class C; 
}  

object load {
     name feeder_3_R3-12-47-1_load_55; 
     parent feeder_3_R3-12-47-1_meter_55; 
     phases ABCN; 
     constant_power_A_real 5913.9*power_mag_1;
     constant_power_A_reac 3596.5*power_mag_1;
     constant_power_B_real 5913.9*power_mag_1;
     constant_power_B_reac 3596.5*power_mag_1;
     constant_power_C_real 5913.9*power_mag_1;
     constant_power_C_reac 3596.5*power_mag_1;
     nominal_voltage 7199.558; 
     load_class C; 
}  

object load {
     name feeder_3_R3-12-47-1_load_56; 
     parent feeder_3_R3-12-47-1_meter_56; 
     phases ABCN; 
     constant_power_A_real 17769.4*power_mag_1;
     constant_power_A_reac 10806.3*power_mag_1;
     constant_power_B_real 17769.4*power_mag_1;
     constant_power_B_reac 10806.3*power_mag_1;
     constant_power_C_real 17769.4*power_mag_1;
     constant_power_C_reac 10806.3*power_mag_1;
     nominal_voltage 7199.558; 
     load_class C; 
}  

object load {
     name feeder_3_R3-12-47-1_load_57; 
     parent feeder_3_R3-12-47-1_meter_57; 
     phases ABCN; 
     constant_power_A_real 5913.9*power_mag_1;
     constant_power_A_reac 3596.5*power_mag_1;
     constant_power_B_real 5913.9*power_mag_1;
     constant_power_B_reac 3596.5*power_mag_1;
     constant_power_C_real 5913.9*power_mag_1;
     constant_power_C_reac 3596.5*power_mag_1;
     nominal_voltage 7199.558; 
     load_class C; 
}  

object load {
     name feeder_3_R3-12-47-1_load_58; 
     parent feeder_3_R3-12-47-1_meter_58; 
     phases ABCN; 
     constant_power_A_real 77800.0*power_mag_1;
     constant_power_A_reac 48200.0*power_mag_1;
     constant_power_B_real 77800.0*power_mag_1;
     constant_power_B_reac 48200.0*power_mag_1;
     constant_power_C_real 77800.0*power_mag_1;
     constant_power_C_reac 48200.0*power_mag_1;
     nominal_voltage 7199.558; 
     load_class C; 
}  

object load {
     name feeder_3_R3-12-47-1_load_59; 
     parent feeder_3_R3-12-47-1_meter_59; 
     phases ABCN; 
     constant_power_A_real 61533.3*power_mag_1;
     constant_power_A_reac 38133.3*power_mag_1;
     constant_power_B_real 61533.3*power_mag_1;
     constant_power_B_reac 38133.3*power_mag_1;
     constant_power_C_real 61533.3*power_mag_1;
     constant_power_C_reac 38133.3*power_mag_1;
     nominal_voltage 7199.558; 
     load_class R; 
}  

object load {
     name feeder_3_R3-12-47-1_load_60; 
     parent feeder_3_R3-12-47-1_meter_60; 
     phases ABCN; 
     constant_power_A_real 14533.3*power_mag_1;
     constant_power_A_reac 9000.0*power_mag_1;
     constant_power_B_real 14533.3*power_mag_1;
     constant_power_B_reac 9000.0*power_mag_1;
     constant_power_C_real 14533.3*power_mag_1;
     constant_power_C_reac 9000.0*power_mag_1;
     nominal_voltage 7199.558; 
     load_class R; 
}  

object load {
     name feeder_3_R3-12-47-1_load_61; 
     parent feeder_3_R3-12-47-1_meter_61; 
     phases ABCN; 
     constant_power_A_real 274666.7*power_mag_1;
     constant_power_A_reac 170266.7*power_mag_1;
     constant_power_B_real 274666.7*power_mag_1;
     constant_power_B_reac 170266.7*power_mag_1;
     constant_power_C_real 274666.7*power_mag_1;
     constant_power_C_reac 170266.7*power_mag_1;
     nominal_voltage 7199.558; 
     load_class R; 
}  

object load {
     name feeder_3_R3-12-47-1_load_62; 
     parent feeder_3_R3-12-47-1_meter_62; 
     phases ABCN; 
     constant_power_A_real 844466.7*power_mag_1;
     constant_power_A_reac 523533.3*power_mag_1;
     constant_power_B_real 844466.7*power_mag_1;
     constant_power_B_reac 523533.3*power_mag_1;
     constant_power_C_real 844466.7*power_mag_1;
     constant_power_C_reac 523533.3*power_mag_1;
     nominal_voltage 7199.558; 
     load_class R; 
}  

object load {
     name feeder_3_R3-12-47-1_load_63; 
     parent feeder_3_R3-12-47-1_meter_63; 
     phases ABCN; 
     constant_power_A_real 33333.3*power_mag_1;
     constant_power_A_reac 20666.7*power_mag_1;
     constant_power_B_real 33333.3*power_mag_1;
     constant_power_B_reac 20666.7*power_mag_1;
     constant_power_C_real 33333.3*power_mag_1;
     constant_power_C_reac 20666.7*power_mag_1;
     nominal_voltage 7199.558; 
     load_class R; 
}  

object load {
     name feeder_3_R3-12-47-1_load_64; 
     parent feeder_3_R3-12-47-1_meter_64; 
     phases ABCN; 
     constant_power_A_real 81800.0*power_mag_1;
     constant_power_A_reac 50666.7*power_mag_1;
     constant_power_B_real 81800.0*power_mag_1;
     constant_power_B_reac 50666.7*power_mag_1;
     constant_power_C_real 81800.0*power_mag_1;
     constant_power_C_reac 50666.7*power_mag_1;
     nominal_voltage 7199.558; 
     load_class C; 
}  

object meter {
     name feeder_3_R3-12-47-1_meter_1; 
     phases ABCN; 
     voltage_A 7199.558+0.0j; 
     voltage_B -3599.779-6235.000j; 
     voltage_C -3599.779+6235.000j; 
     nominal_voltage 7199.558; 
}  

object meter {
     name feeder_3_R3-12-47-1_meter_2; 
     phases ABCN; 
     voltage_A 7199.558+0.0j; 
     voltage_B -3599.779-6235.000j; 
     voltage_C -3599.779+6235.000j; 
     nominal_voltage 7199.558; 
}  

object meter {
     name feeder_3_R3-12-47-1_meter_3; 
     phases ABCN; 
     voltage_A 7199.558+0.0j; 
     voltage_B -3599.779-6235.000j; 
     voltage_C -3599.779+6235.000j; 
     nominal_voltage 7199.558; 
}  

object meter {
     name feeder_3_R3-12-47-1_meter_4; 
     phases ABCN; 
     voltage_A 7199.558+0.0j; 
     voltage_B -3599.779-6235.000j; 
     voltage_C -3599.779+6235.000j; 
     nominal_voltage 7199.558; 
}  

object meter {
     name feeder_3_R3-12-47-1_meter_5; 
     phases ABCN; 
     voltage_A 7199.558+0.0j; 
     voltage_B -3599.779-6235.000j; 
     voltage_C -3599.779+6235.000j; 
     nominal_voltage 7199.558; 
}  

object meter {
     name feeder_3_R3-12-47-1_meter_6; 
     phases ABCN; 
     voltage_A 7199.558+0.0j; 
     voltage_B -3599.779-6235.000j; 
     voltage_C -3599.779+6235.000j; 
     nominal_voltage 7199.558; 
}  

object meter {
     name feeder_3_R3-12-47-1_meter_7; 
     phases ABCN; 
     voltage_A 7199.558+0.0j; 
     voltage_B -3599.779-6235.000j; 
     voltage_C -3599.779+6235.000j; 
     nominal_voltage 7199.558; 
}  

object meter {
     name feeder_3_R3-12-47-1_meter_8; 
     phases ABCN; 
     voltage_A 7199.558+0.0j; 
     voltage_B -3599.779-6235.000j; 
     voltage_C -3599.779+6235.000j; 
     nominal_voltage 7199.558; 
}  

object meter {
     name feeder_3_R3-12-47-1_meter_9; 
     phases ABCN; 
     voltage_A 7199.558+0.0j; 
     voltage_B -3599.779-6235.000j; 
     voltage_C -3599.779+6235.000j; 
     nominal_voltage 7199.558; 
}  

object meter {
     name feeder_3_R3-12-47-1_meter_10; 
     phases ABCN; 
     voltage_A 7199.558+0.0j; 
     voltage_B -3599.779-6235.000j; 
     voltage_C -3599.779+6235.000j; 
     nominal_voltage 7199.558; 
}  

object meter {
     name feeder_3_R3-12-47-1_meter_11; 
     phases BCN; 
     voltage_B -3599.779-6235.000j; 
     voltage_C -3599.779+6235.000j; 
     nominal_voltage 7199.558; 
}  

object meter {
     name feeder_3_R3-12-47-1_meter_12; 
     phases ACN; 
     voltage_A 7199.558+0.0j; 
     voltage_C -3599.779+6235.000j; 
     nominal_voltage 7199.558; 
}  

object meter {
     name feeder_3_R3-12-47-1_meter_13; 
     phases ABCN; 
     voltage_A 7199.558+0.0j; 
     voltage_B -3599.779-6235.000j; 
     voltage_C -3599.779+6235.000j; 
     nominal_voltage 7199.558; 
}  

object meter {
     name feeder_3_R3-12-47-1_meter_14; 
     phases ABCN; 
     voltage_A 7199.558+0.0j; 
     voltage_B -3599.779-6235.000j; 
     voltage_C -3599.779+6235.000j; 
     nominal_voltage 7199.558; 
}  

object meter {
     name feeder_3_R3-12-47-1_meter_15; 
     phases ABCN; 
     voltage_A 7199.558+0.0j; 
     voltage_B -3599.779-6235.000j; 
     voltage_C -3599.779+6235.000j; 
     nominal_voltage 7199.558; 
}  

object meter {
     name feeder_3_R3-12-47-1_meter_16; 
     phases ABCN; 
     voltage_A 7199.558+0.0j; 
     voltage_B -3599.779-6235.000j; 
     voltage_C -3599.779+6235.000j; 
     nominal_voltage 7199.558; 
}  

object meter {
     name feeder_3_R3-12-47-1_meter_17; 
     phases ABCN; 
     voltage_A 7199.558+0.0j; 
     voltage_B -3599.779-6235.000j; 
     voltage_C -3599.779+6235.000j; 
     nominal_voltage 7199.558; 
}  

object meter {
     name feeder_3_R3-12-47-1_meter_18; 
     phases ABCN; 
     voltage_A 7199.558+0.0j; 
     voltage_B -3599.779-6235.000j; 
     voltage_C -3599.779+6235.000j; 
     nominal_voltage 7199.558; 
}  

object meter {
     name feeder_3_R3-12-47-1_meter_19; 
     phases ABCN; 
     voltage_A 7199.558+0.0j; 
     voltage_B -3599.779-6235.000j; 
     voltage_C -3599.779+6235.000j; 
     nominal_voltage 7199.558; 
}  

object meter {
     name feeder_3_R3-12-47-1_meter_20; 
     phases ABCN; 
     voltage_A 7199.558+0.0j; 
     voltage_B -3599.779-6235.000j; 
     voltage_C -3599.779+6235.000j; 
     nominal_voltage 7199.558; 
}  

object meter {
     name feeder_3_R3-12-47-1_meter_21; 
     phases ABN; 
     voltage_A 7199.558+0.0j; 
     voltage_B -3599.779-6235.000j; 
     nominal_voltage 7199.558; 
}  

object meter {
     name feeder_3_R3-12-47-1_meter_22; 
     phases ABCN; 
     voltage_A 7199.558+0.0j; 
     voltage_B -3599.779-6235.000j; 
     voltage_C -3599.779+6235.000j; 
     nominal_voltage 7199.558; 
}  

object meter {
     name feeder_3_R3-12-47-1_meter_23; 
     phases ABCN; 
     voltage_A 7199.558+0.0j; 
     voltage_B -3599.779-6235.000j; 
     voltage_C -3599.779+6235.000j; 
     nominal_voltage 7199.558; 
}  

object meter {
     name feeder_3_R3-12-47-1_meter_24; 
     phases ABCN; 
...